notebook_tutorials/synthetic_net_opendss/master_sample_78.dss
clear
new circuit.synthetic_net basekv=157.6864406779661 pu=1.0 phases=3
edit Vsource.source bus1=bus_68.1.2.3

!---------------- LINES ----------------

new linecode.LCode_0 nphases=1 rmatrix=[0.532661] xmatrix=[1.259964] units=km
new line.line_0 bus1=bus_0.1 bus2=bus_1.1 linecode=LCode_0 length=1.0 units=km
new linecode.LCode_1 nphases=1 rmatrix=[0.639321] xmatrix=[1.394670] units=km
new line.line_1 bus1=bus_0.1 bus2=bus_2.1 linecode=LCode_1 length=1.0 units=km
new linecode.LCode_2 nphases=1 rmatrix=[0.941572] xmatrix=[1.313843] units=km
new line.line_2 bus1=bus_3.1 bus2=bus_4.1 linecode=LCode_2 length=1.0 units=km
new linecode.LCode_3 nphases=1 rmatrix=[0.837566] xmatrix=[1.242115] units=km
new line.line_3 bus1=bus_2.1 bus2=bus_4.1 linecode=LCode_3 length=1.0 units=km
new linecode.LCode_4 nphases=1 rmatrix=[0.850520] xmatrix=[1.242115] units=km
new line.line_4 bus1=bus_4.1 bus2=bus_5.1 linecode=LCode_4 length=1.0 units=km
new linecode.LCode_5 nphases=1 rmatrix=[0.454771] xmatrix=[1.328542] units=km
new line.line_5 bus1=bus_5.1 bus2=bus_6.1 linecode=LCode_5 length=1.0 units=km
new linecode.LCode_6 nphases=1 rmatrix=[0.589916] xmatrix=[1.242115] units=km
new line.line_6 bus1=bus_7.1 bus2=bus_8.1 linecode=LCode_6 length=1.0 units=km
new linecode.LCode_7 nphases=1 rmatrix=[0.775723] xmatrix=[1.242115] units=km
new line.line_7 bus1=bus_8.1 bus2=bus_9.1 linecode=LCode_7 length=1.0 units=km
new linecode.LCode_8 nphases=1 rmatrix=[0.876596] xmatrix=[1.242115] units=km
new line.line_8 bus1=bus_3.1 bus2=bus_10.1 linecode=LCode_8 length=1.0 units=km
new linecode.LCode_9 nphases=1 rmatrix=[0.960219] xmatrix=[1.242115] units=km
new line.line_9 bus1=bus_4.1 bus2=bus_10.1 linecode=LCode_9 length=1.0 units=km
new linecode.LCode_10 nphases=1 rmatrix=[0.550317] xmatrix=[1.286552] units=km
new line.line_10 bus1=bus_10.1 bus2=bus_11.1 linecode=LCode_10 length=1.0 units=km
new linecode.LCode_11 nphases=1 rmatrix=[0.664750] xmatrix=[1.242115] units=km
new line.line_11 bus1=bus_1.1 bus2=bus_11.1 linecode=LCode_11 length=1.0 units=km
new linecode.LCode_12 nphases=1 rmatrix=[1.147170] xmatrix=[1.272080] units=km
new line.line_12 bus1=bus_2.1 bus2=bus_11.1 linecode=LCode_12 length=1.0 units=km
new linecode.LCode_13 nphases=1 rmatrix=[0.783736] xmatrix=[1.243059] units=km
new line.line_13 bus1=bus_6.1 bus2=bus_11.1 linecode=LCode_13 length=1.0 units=km
new linecode.LCode_16 nphases=1 rmatrix=[0.941637] xmatrix=[1.347037] units=km
new line.line_16 bus1=bus_12.3 bus2=bus_14.3 linecode=LCode_16 length=1.0 units=km
new linecode.LCode_17 nphases=1 rmatrix=[0.496109] xmatrix=[1.242115] units=km
new line.line_17 bus1=bus_13.3 bus2=bus_14.3 linecode=LCode_17 length=1.0 units=km
new linecode.LCode_18 nphases=1 rmatrix=[1.029486] xmatrix=[1.297913] units=km
new line.line_18 bus1=bus_11.1 bus2=bus_15.1 linecode=LCode_18 length=1.0 units=km
new linecode.LCode_20 nphases=1 rmatrix=[0.802968] xmatrix=[1.242115] units=km
new line.line_20 bus1=bus_15.1 bus2=bus_16.1 linecode=LCode_20 length=1.0 units=km
new linecode.LCode_21 nphases=1 rmatrix=[0.836003] xmatrix=[1.351083] units=km
new line.line_21 bus1=bus_16.1 bus2=bus_17.1 linecode=LCode_21 length=1.0 units=km
new linecode.LCode_23 nphases=1 rmatrix=[0.615720] xmatrix=[1.242115] units=km
new line.line_23 bus1=bus_18.3 bus2=bus_19.3 linecode=LCode_23 length=1.0 units=km
new linecode.LCode_24 nphases=1 rmatrix=[0.660974] xmatrix=[1.308263] units=km
new line.line_24 bus1=bus_14.3 bus2=bus_18.3 linecode=LCode_24 length=1.0 units=km
new linecode.LCode_25 nphases=2 rmatrix=[0.642502 | 0.059160 0.642502] xmatrix=[1.253601 | 1.024695 1.253601] units=km
new line.line_25 bus1=bus_19.2.3 bus2=bus_20.2.3 linecode=LCode_25 length=1.0 units=km
new linecode.LCode_26 nphases=2 rmatrix=[1.219829 | 0.059160 1.219829] xmatrix=[1.285403 | 1.024695 1.285403] units=km
new line.line_26 bus1=bus_20.2.3 bus2=bus_21.2.3 linecode=LCode_26 length=1.0 units=km
new linecode.LCode_27 nphases=2 rmatrix=[0.779783 | 0.059160 0.779783] xmatrix=[1.261191 | 1.024695 1.261191] units=km
new line.line_27 bus1=bus_21.2.3 bus2=bus_22.2.3 linecode=LCode_27 length=1.0 units=km
new linecode.LCode_28 nphases=2 rmatrix=[1.338496 | 0.059160 1.338496] xmatrix=[1.242115 | 1.024695 1.242115] units=km
new line.line_28 bus1=bus_22.2.3 bus2=bus_23.2.3 linecode=LCode_28 length=1.0 units=km
new linecode.LCode_30 nphases=1 rmatrix=[0.984883] xmatrix=[1.387449] units=km
new line.line_30 bus1=bus_24.1 bus2=bus_26.1 linecode=LCode_30 length=1.0 units=km
new linecode.LCode_31 nphases=1 rmatrix=[0.232406] xmatrix=[1.242115] units=km
new line.line_31 bus1=bus_26.1 bus2=bus_27.1 linecode=LCode_31 length=1.0 units=km
new linecode.LCode_33 nphases=1 rmatrix=[1.053357] xmatrix=[1.242115] units=km
new line.line_33 bus1=bus_7.1 bus2=bus_29.1 linecode=LCode_33 length=1.0 units=km
new linecode.LCode_34 nphases=1 rmatrix=[0.800190] xmatrix=[1.242115] units=km
new line.line_34 bus1=bus_25.1 bus2=bus_29.1 linecode=LCode_34 length=1.0 units=km
new linecode.LCode_36 nphases=2 rmatrix=[0.859306 | 0.059160 0.859306] xmatrix=[1.429465 | 1.024695 1.429465] units=km
new line.line_36 bus1=bus_28.2.3 bus2=bus_30.2.3 linecode=LCode_36 length=1.0 units=km
new linecode.LCode_37 nphases=2 rmatrix=[0.739676 | 0.059160 0.739676] xmatrix=[1.480090 | 1.024695 1.480090] units=km
new line.line_37 bus1=bus_22.2.3 bus2=bus_31.2.3 linecode=LCode_37 length=1.0 units=km
new linecode.LCode_38 nphases=2 rmatrix=[0.738340 | 0.059160 0.738340] xmatrix=[1.467263 | 1.024695 1.467263] units=km
new line.line_38 bus1=bus_30.2.3 bus2=bus_31.2.3 linecode=LCode_38 length=1.0 units=km
new linecode.LCode_40 nphases=1 rmatrix=[0.568872] xmatrix=[1.242115] units=km
new line.line_40 bus1=bus_14.3 bus2=bus_32.3 linecode=LCode_40 length=1.0 units=km
new linecode.LCode_41 nphases=1 rmatrix=[1.509198] xmatrix=[1.242115] units=km
new line.line_41 bus1=bus_18.3 bus2=bus_33.3 linecode=LCode_41 length=1.0 units=km
new linecode.LCode_42 nphases=1 rmatrix=[0.712031] xmatrix=[1.280355] units=km
new line.line_42 bus1=bus_34.3 bus2=bus_35.3 linecode=LCode_42 length=1.0 units=km
new linecode.LCode_43 nphases=1 rmatrix=[0.752048] xmatrix=[1.489767] units=km
new line.line_43 bus1=bus_34.3 bus2=bus_36.3 linecode=LCode_43 length=1.0 units=km
new linecode.LCode_44 nphases=1 rmatrix=[0.527234] xmatrix=[1.412863] units=km
new line.line_44 bus1=bus_32.3 bus2=bus_36.3 linecode=LCode_44 length=1.0 units=km
new linecode.LCode_45 nphases=1 rmatrix=[0.217948] xmatrix=[1.320065] units=km
new line.line_45 bus1=bus_33.3 bus2=bus_35.3 linecode=LCode_45 length=1.0 units=km
new linecode.LCode_46 nphases=1 rmatrix=[0.729351] xmatrix=[1.242115] units=km
new line.line_46 bus1=bus_33.3 bus2=bus_36.3 linecode=LCode_46 length=1.0 units=km
new linecode.LCode_47 nphases=1 rmatrix=[0.460410] xmatrix=[1.243370] units=km
new line.line_47 bus1=bus_36.3 bus2=bus_38.3 linecode=LCode_47 length=1.0 units=km
new linecode.LCode_48 nphases=1 rmatrix=[0.742002] xmatrix=[1.242115] units=km
new line.line_48 bus1=bus_36.3 bus2=bus_39.3 linecode=LCode_48 length=1.0 units=km
new linecode.LCode_49 nphases=1 rmatrix=[0.798770] xmatrix=[1.242115] units=km
new line.line_49 bus1=bus_29.1 bus2=bus_37.1 linecode=LCode_49 length=1.0 units=km
new linecode.LCode_50 nphases=2 rmatrix=[1.245443 | 0.059160 1.245443] xmatrix=[1.314074 | 1.024695 1.314074] units=km
new line.line_50 bus1=bus_38.2.3 bus2=bus_39.2.3 linecode=LCode_50 length=1.0 units=km
new linecode.LCode_51 nphases=2 rmatrix=[0.686396 | 0.059160 0.686396] xmatrix=[1.276786 | 1.024695 1.276786] units=km
new line.line_51 bus1=bus_39.2.3 bus2=bus_40.2.3 linecode=LCode_51 length=1.0 units=km
new linecode.LCode_52 nphases=2 rmatrix=[0.529096 | 0.059160 0.529096] xmatrix=[1.338904 | 1.024695 1.338904] units=km
new line.line_52 bus1=bus_39.2.3 bus2=bus_41.2.3 linecode=LCode_52 length=1.0 units=km
new linecode.LCode_53 nphases=2 rmatrix=[0.974918 | 0.059160 0.974918] xmatrix=[1.242115 | 1.024695 1.242115] units=km
new line.line_53 bus1=bus_40.2.3 bus2=bus_41.2.3 linecode=LCode_53 length=1.0 units=km
new linecode.LCode_54 nphases=2 rmatrix=[0.201394 | 0.059160 0.201394] xmatrix=[1.483078 | 1.024695 1.483078] units=km
new line.line_54 bus1=bus_42.2.3 bus2=bus_43.2.3 linecode=LCode_54 length=1.0 units=km
new linecode.LCode_55 nphases=1 rmatrix=[0.314371] xmatrix=[1.242115] units=km
new line.line_55 bus1=bus_33.3 bus2=bus_42.3 linecode=LCode_55 length=1.0 units=km
new linecode.LCode_56 nphases=2 rmatrix=[1.029001 | 0.059160 1.029001] xmatrix=[1.261608 | 1.024695 1.261608] units=km
new line.line_56 bus1=bus_43.2.3 bus2=bus_44.2.3 linecode=LCode_56 length=1.0 units=km
new linecode.LCode_57 nphases=1 rmatrix=[0.482163] xmatrix=[1.242115] units=km
new line.line_57 bus1=bus_44.2 bus2=bus_45.2 linecode=LCode_57 length=1.0 units=km
new linecode.LCode_58 nphases=1 rmatrix=[0.209244] xmatrix=[1.648910] units=km
new line.line_58 bus1=bus_45.2 bus2=bus_46.2 linecode=LCode_58 length=1.0 units=km
new linecode.LCode_59 nphases=1 rmatrix=[1.012847] xmatrix=[1.242115] units=km
new line.line_59 bus1=bus_45.2 bus2=bus_47.2 linecode=LCode_59 length=1.0 units=km
new linecode.LCode_60 nphases=1 rmatrix=[0.827159] xmatrix=[1.242115] units=km
new line.line_60 bus1=bus_46.2 bus2=bus_48.2 linecode=LCode_60 length=1.0 units=km
new linecode.LCode_61 nphases=2 rmatrix=[0.337956 | 0.059160 0.337956] xmatrix=[1.242115 | 1.024695 1.242115] units=km
new line.line_61 bus1=bus_41.2.3 bus2=bus_48.2.3 linecode=LCode_61 length=1.0 units=km
new linecode.LCode_62 nphases=2 rmatrix=[0.676694 | 0.059160 0.676694] xmatrix=[1.242115 | 1.024695 1.242115] units=km
new line.line_62 bus1=bus_41.2.3 bus2=bus_48.2.3 linecode=LCode_62 length=1.0 units=km
new linecode.LCode_63 nphases=2 rmatrix=[0.358925 | 0.059160 0.358925] xmatrix=[1.242115 | 1.024695 1.242115] units=km
new line.line_63 bus1=bus_44.2.3 bus2=bus_48.2.3 linecode=LCode_63 length=1.0 units=km
new linecode.LCode_64 nphases=2 rmatrix=[0.790057 | 0.059160 0.790057] xmatrix=[1.242115 | 1.024695 1.242115] units=km
new line.line_64 bus1=bus_47.2.3 bus2=bus_48.2.3 linecode=LCode_64 length=1.0 units=km
new linecode.LCode_65 nphases=2 rmatrix=[0.797055 | 0.059160 0.797055] xmatrix=[1.242115 | 1.024695 1.242115] units=km
new line.line_65 bus1=bus_48.2.3 bus2=bus_49.2.3 linecode=LCode_65 length=1.0 units=km
new linecode.LCode_66 nphases=2 rmatrix=[0.441481 | 0.059160 0.441481] xmatrix=[1.373336 | 1.024695 1.373336] units=km
new line.line_66 bus1=bus_48.2.3 bus2=bus_50.2.3 linecode=LCode_66 length=1.0 units=km
new linecode.LCode_67 nphases=2 rmatrix=[0.590091 | 0.059160 0.590091] xmatrix=[1.242115 | 1.024695 1.242115] units=km
new line.line_67 bus1=bus_50.2.3 bus2=bus_51.2.3 linecode=LCode_67 length=1.0 units=km
new linecode.LCode_68 nphases=2 rmatrix=[0.822469 | 0.059160 0.822469] xmatrix=[1.242115 | 1.024695 1.242115] units=km
new line.line_68 bus1=bus_51.2.3 bus2=bus_52.2.3 linecode=LCode_68 length=1.0 units=km
new linecode.LCode_69 nphases=2 rmatrix=[0.921207 | 0.059160 0.921207] xmatrix=[1.242115 | 1.024695 1.242115] units=km
new line.line_69 bus1=bus_52.2.3 bus2=bus_53.2.3 linecode=LCode_69 length=1.0 units=km
new linecode.LCode_70 nphases=2 rmatrix=[0.306557 | 0.059160 0.306557] xmatrix=[1.576071 | 1.024695 1.576071] units=km
new line.line_70 bus1=bus_48.2.3 bus2=bus_53.2.3 linecode=LCode_70 length=1.0 units=km
new linecode.LCode_71 nphases=2 rmatrix=[0.249861 | 0.059160 0.249861] xmatrix=[1.276952 | 1.024695 1.276952] units=km
new line.line_71 bus1=bus_48.2.3 bus2=bus_53.2.3 linecode=LCode_71 length=1.0 units=km
new linecode.LCode_73 nphases=2 rmatrix=[0.569979 | 0.059160 0.569979] xmatrix=[1.242115 | 1.024695 1.242115] units=km
new line.line_73 bus1=bus_53.2.3 bus2=bus_55.2.3 linecode=LCode_73 length=1.0 units=km
new linecode.LCode_75 nphases=2 rmatrix=[0.522437 | 0.059160 0.522437] xmatrix=[1.317654 | 1.024695 1.317654] units=km
new line.line_75 bus1=bus_55.2.3 bus2=bus_56.2.3 linecode=LCode_75 length=1.0 units=km
new linecode.LCode_76 nphases=2 rmatrix=[0.532013 | 0.059160 0.532013] xmatrix=[1.242115 | 1.024695 1.242115] units=km
new line.line_76 bus1=bus_49.2.3 bus2=bus_56.2.3 linecode=LCode_76 length=1.0 units=km
new linecode.LCode_77 nphases=2 rmatrix=[0.490838 | 0.059160 0.490838] xmatrix=[1.242115 | 1.024695 1.242115] units=km
new line.line_77 bus1=bus_55.2.3 bus2=bus_57.2.3 linecode=LCode_77 length=1.0 units=km
new linecode.LCode_78 nphases=2 rmatrix=[0.254826 | 0.059160 0.254826] xmatrix=[1.244731 | 1.024695 1.244731] units=km
new line.line_78 bus1=bus_50.2.3 bus2=bus_57.2.3 linecode=LCode_78 length=1.0 units=km
new linecode.LCode_82 nphases=1 rmatrix=[0.157421] xmatrix=[1.473509] units=km
new line.line_82 bus1=bus_54.1 bus2=bus_58.1 linecode=LCode_82 length=1.0 units=km
new linecode.LCode_83 nphases=1 rmatrix=[0.703813] xmatrix=[1.242115] units=km
new line.line_83 bus1=bus_58.1 bus2=bus_59.1 linecode=LCode_83 length=1.0 units=km
new linecode.LCode_84 nphases=1 rmatrix=[0.596757] xmatrix=[1.455575] units=km
new line.line_84 bus1=bus_58.1 bus2=bus_60.1 linecode=LCode_84 length=1.0 units=km
new linecode.LCode_85 nphases=1 rmatrix=[0.518310] xmatrix=[1.572032] units=km
new line.line_85 bus1=bus_59.1 bus2=bus_60.1 linecode=LCode_85 length=1.0 units=km
new linecode.LCode_88 nphases=1 rmatrix=[0.868863] xmatrix=[1.402054] units=km
new line.line_88 bus1=bus_62.3 bus2=bus_63.3 linecode=LCode_88 length=1.0 units=km
new linecode.LCode_90 nphases=1 rmatrix=[0.377819] xmatrix=[1.314886] units=km
new line.line_90 bus1=bus_63.3 bus2=bus_64.3 linecode=LCode_90 length=1.0 units=km
new linecode.LCode_91 nphases=2 rmatrix=[0.834083 | 0.059160 0.834083] xmatrix=[1.242115 | 1.024695 1.242115] units=km
new line.line_91 bus1=bus_48.2.3 bus2=bus_65.2.3 linecode=LCode_91 length=1.0 units=km
new linecode.LCode_92 nphases=2 rmatrix=[0.324851 | 0.059160 0.324851] xmatrix=[1.287933 | 1.024695 1.287933] units=km
new line.line_92 bus1=bus_48.2.3 bus2=bus_65.2.3 linecode=LCode_92 length=1.0 units=km
new linecode.LCode_93 nphases=2 rmatrix=[1.377207 | 0.059160 1.377207] xmatrix=[1.364540 | 1.024695 1.364540] units=km
new line.line_93 bus1=bus_61.2.3 bus2=bus_65.2.3 linecode=LCode_93 length=1.0 units=km
new linecode.LCode_94 nphases=2 rmatrix=[0.401369 | 0.059160 0.401369] xmatrix=[1.647484 | 1.024695 1.647484] units=km
new line.line_94 bus1=bus_61.2.3 bus2=bus_66.2.3 linecode=LCode_94 length=1.0 units=km
new linecode.LCode_95 nphases=2 rmatrix=[0.218919 | 0.059160 0.218919] xmatrix=[1.415262 | 1.024695 1.415262] units=km
new line.line_95 bus1=bus_65.2.3 bus2=bus_66.2.3 linecode=LCode_95 length=1.0 units=km
new linecode.LCode_96 nphases=1 rmatrix=[0.273872] xmatrix=[1.242115] units=km
new line.line_96 bus1=bus_46.2 bus2=bus_68.2 linecode=LCode_96 length=1.0 units=km
new linecode.LCode_97 nphases=2 rmatrix=[0.507385 | 0.059160 0.507385] xmatrix=[1.494901 | 1.024695 1.494901] units=km
new line.line_97 bus1=bus_48.2.3 bus2=bus_68.2.3 linecode=LCode_97 length=1.0 units=km
new linecode.LCode_98 nphases=2 rmatrix=[0.671693 | 0.059160 0.671693] xmatrix=[1.361203 | 1.024695 1.361203] units=km
new line.line_98 bus1=bus_68.2.3 bus2=bus_69.2.3 linecode=LCode_98 length=1.0 units=km
new linecode.LCode_99 nphases=2 rmatrix=[0.853006 | 0.059160 0.853006] xmatrix=[1.242115 | 1.024695 1.242115] units=km
new line.line_99 bus1=bus_23.2.3 bus2=bus_69.2.3 linecode=LCode_99 length=1.0 units=km
new linecode.LCode_100 nphases=2 rmatrix=[0.758433 | 0.059160 0.758433] xmatrix=[1.366036 | 1.024695 1.366036] units=km
new line.line_100 bus1=bus_69.2.3 bus2=bus_70.2.3 linecode=LCode_100 length=1.0 units=km
new linecode.LCode_101 nphases=2 rmatrix=[0.905309 | 0.059160 0.905309] xmatrix=[1.271147 | 1.024695 1.271147] units=km
new line.line_101 bus1=bus_23.2.3 bus2=bus_71.2.3 linecode=LCode_101 length=1.0 units=km
new linecode.LCode_102 nphases=2 rmatrix=[1.169203 | 0.059160 1.169203] xmatrix=[1.330193 | 1.024695 1.330193] units=km
new line.line_102 bus1=bus_70.2.3 bus2=bus_71.2.3 linecode=LCode_102 length=1.0 units=km
new linecode.LCode_104 nphases=2 rmatrix=[0.974198 | 0.059160 0.974198] xmatrix=[1.298621 | 1.024695 1.298621] units=km
new line.line_104 bus1=bus_69.2.3 bus2=bus_73.2.3 linecode=LCode_104 length=1.0 units=km
new linecode.LCode_106 nphases=1 rmatrix=[1.272424] xmatrix=[1.367249] units=km
new line.line_106 bus1=bus_68.1 bus2=bus_74.1 linecode=LCode_106 length=1.0 units=km
new linecode.LCode_108 nphases=2 rmatrix=[0.219612 | 0.059160 0.219612] xmatrix=[1.364035 | 0.940589 1.364035] units=km
new line.line_108 bus1=bus_75.1.3 bus2=bus_76.1.3 linecode=LCode_108 length=1.0 units=km
new linecode.LCode_109 nphases=2 rmatrix=[0.209042 | 0.059160 0.209042] xmatrix=[1.430415 | 0.940589 1.430415] units=km
new line.line_109 bus1=bus_68.1.3 bus2=bus_76.1.3 linecode=LCode_109 length=1.0 units=km
new linecode.LCode_110 nphases=1 rmatrix=[0.886145] xmatrix=[1.242115] units=km
new line.line_110 bus1=bus_74.1 bus2=bus_76.1 linecode=LCode_110 length=1.0 units=km
new linecode.LCode_111 nphases=2 rmatrix=[0.252389 | 0.059160 0.252389] xmatrix=[1.242115 | 0.940589 1.242115] units=km
new line.line_111 bus1=bus_76.1.3 bus2=bus_77.1.3 linecode=LCode_111 length=1.0 units=km
new linecode.LCode_112 nphases=2 rmatrix=[0.743903 | 0.059160 0.743903] xmatrix=[1.269046 | 0.940589 1.269046] units=km
new line.line_112 bus1=bus_77.1.3 bus2=bus_78.1.3 linecode=LCode_112 length=1.0 units=km
new linecode.LCode_113 nphases=2 rmatrix=[0.383039 | 0.059160 0.383039] xmatrix=[1.466546 | 0.940589 1.466546] units=km
new line.line_113 bus1=bus_76.1.3 bus2=bus_79.1.3 linecode=LCode_113 length=1.0 units=km
new linecode.LCode_114 nphases=2 rmatrix=[0.286059 | 0.059160 0.286059] xmatrix=[1.261941 | 0.940589 1.261941] units=km
new line.line_114 bus1=bus_76.1.3 bus2=bus_79.1.3 linecode=LCode_114 length=1.0 units=km
new linecode.LCode_115 nphases=2 rmatrix=[0.608183 | 0.059160 0.608183] xmatrix=[1.437108 | 0.940589 1.437108] units=km
new line.line_115 bus1=bus_78.1.3 bus2=bus_79.1.3 linecode=LCode_115 length=1.0 units=km
new linecode.LCode_116 nphases=1 rmatrix=[0.409296] xmatrix=[1.714215] units=km
new line.line_116 bus1=bus_76.3 bus2=bus_81.3 linecode=LCode_116 length=1.0 units=km
new linecode.LCode_117 nphases=1 rmatrix=[0.324635] xmatrix=[1.242115] units=km
new line.line_117 bus1=bus_81.3 bus2=bus_82.3 linecode=LCode_117 length=1.0 units=km
new linecode.LCode_118 nphases=1 rmatrix=[0.322065] xmatrix=[1.255344] units=km
new line.line_118 bus1=bus_82.3 bus2=bus_83.3 linecode=LCode_118 length=1.0 units=km
new linecode.LCode_119 nphases=1 rmatrix=[0.678366] xmatrix=[1.251504] units=km
new line.line_119 bus1=bus_82.3 bus2=bus_84.3 linecode=LCode_119 length=1.0 units=km
new linecode.LCode_120 nphases=1 rmatrix=[1.193597] xmatrix=[1.377576] units=km
new line.line_120 bus1=bus_83.3 bus2=bus_84.3 linecode=LCode_120 length=1.0 units=km
new linecode.LCode_121 nphases=1 rmatrix=[0.664297] xmatrix=[1.384301] units=km
new line.line_121 bus1=bus_84.3 bus2=bus_85.3 linecode=LCode_121 length=1.0 units=km
new linecode.LCode_122 nphases=1 rmatrix=[0.180651] xmatrix=[1.242115] units=km
new line.line_122 bus1=bus_84.3 bus2=bus_87.3 linecode=LCode_122 length=1.0 units=km
new linecode.LCode_123 nphases=1 rmatrix=[1.116289] xmatrix=[1.242115] units=km
new line.line_123 bus1=bus_84.3 bus2=bus_88.3 linecode=LCode_123 length=1.0 units=km
new linecode.LCode_124 nphases=1 rmatrix=[0.556491] xmatrix=[1.242115] units=km
new line.line_124 bus1=bus_87.3 bus2=bus_88.3 linecode=LCode_124 length=1.0 units=km
new linecode.LCode_125 nphases=1 rmatrix=[0.602709] xmatrix=[1.267101] units=km
new line.line_125 bus1=bus_88.3 bus2=bus_89.3 linecode=LCode_125 length=1.0 units=km
new linecode.LCode_126 nphases=1 rmatrix=[0.880320] xmatrix=[1.305607] units=km
new line.line_126 bus1=bus_88.3 bus2=bus_89.3 linecode=LCode_126 length=1.0 units=km
new linecode.LCode_127 nphases=1 rmatrix=[0.321208] xmatrix=[1.242115] units=km
new line.line_127 bus1=bus_89.3 bus2=bus_90.3 linecode=LCode_127 length=1.0 units=km
new linecode.LCode_128 nphases=1 rmatrix=[0.613481] xmatrix=[1.407865] units=km
new line.line_128 bus1=bus_88.3 bus2=bus_91.3 linecode=LCode_128 length=1.0 units=km
new linecode.LCode_129 nphases=1 rmatrix=[1.097932] xmatrix=[1.297002] units=km
new line.line_129 bus1=bus_88.3 bus2=bus_91.3 linecode=LCode_129 length=1.0 units=km
new linecode.LCode_130 nphases=1 rmatrix=[0.676483] xmatrix=[1.242115] units=km
new line.line_130 bus1=bus_90.3 bus2=bus_91.3 linecode=LCode_130 length=1.0 units=km
new linecode.LCode_131 nphases=1 rmatrix=[0.317588] xmatrix=[1.242115] units=km
new line.line_131 bus1=bus_91.3 bus2=bus_92.3 linecode=LCode_131 length=1.0 units=km
new linecode.LCode_132 nphases=1 rmatrix=[0.910372] xmatrix=[1.242115] units=km
new line.line_132 bus1=bus_91.3 bus2=bus_93.3 linecode=LCode_132 length=1.0 units=km
new linecode.LCode_133 nphases=1 rmatrix=[1.144723] xmatrix=[1.344730] units=km
new line.line_133 bus1=bus_92.3 bus2=bus_93.3 linecode=LCode_133 length=1.0 units=km
new linecode.LCode_134 nphases=1 rmatrix=[0.637671] xmatrix=[1.242115] units=km
new line.line_134 bus1=bus_93.3 bus2=bus_94.3 linecode=LCode_134 length=1.0 units=km
new linecode.LCode_135 nphases=2 rmatrix=[0.523123 | 0.059160 0.523123] xmatrix=[1.260179 | 0.940589 1.260179] units=km
new line.line_135 bus1=bus_79.1.3 bus2=bus_95.1.3 linecode=LCode_135 length=1.0 units=km
new linecode.LCode_136 nphases=1 rmatrix=[0.178832] xmatrix=[1.242115] units=km
new line.line_136 bus1=bus_81.3 bus2=bus_95.3 linecode=LCode_136 length=1.0 units=km
new linecode.LCode_137 nphases=1 rmatrix=[1.394200] xmatrix=[1.242115] units=km
new line.line_137 bus1=bus_93.3 bus2=bus_95.3 linecode=LCode_137 length=1.0 units=km
new linecode.LCode_138 nphases=2 rmatrix=[0.294105 | 0.059160 0.294105] xmatrix=[1.242115 | 0.940589 1.242115] units=km
new line.line_138 bus1=bus_79.1.3 bus2=bus_96.1.3 linecode=LCode_138 length=1.0 units=km
new linecode.LCode_139 nphases=2 rmatrix=[0.557157 | 0.059160 0.557157] xmatrix=[1.344001 | 0.940589 1.344001] units=km
new line.line_139 bus1=bus_79.1.3 bus2=bus_97.1.3 linecode=LCode_139 length=1.0 units=km
new linecode.LCode_140 nphases=2 rmatrix=[0.374647 | 0.059160 0.374647] xmatrix=[1.402056 | 0.940589 1.402056] units=km
new line.line_140 bus1=bus_79.1.3 bus2=bus_98.1.3 linecode=LCode_140 length=1.0 units=km
new linecode.LCode_141 nphases=1 rmatrix=[0.949468] xmatrix=[1.242115] units=km
new line.line_141 bus1=bus_91.3 bus2=bus_99.3 linecode=LCode_141 length=1.0 units=km
new linecode.LCode_142 nphases=1 rmatrix=[0.858460] xmatrix=[1.337316] units=km
new line.line_142 bus1=bus_93.3 bus2=bus_99.3 linecode=LCode_142 length=1.0 units=km
new linecode.LCode_143 nphases=2 rmatrix=[0.855330 | 0.059160 0.855330] xmatrix=[1.251393 | 0.940589 1.251393] units=km
new line.line_143 bus1=bus_94.1.3 bus2=bus_95.1.3 linecode=LCode_143 length=1.0 units=km
new linecode.LCode_144 nphases=2 rmatrix=[0.464876 | 0.059160 0.464876] xmatrix=[1.492735 | 0.940589 1.492735] units=km
new line.line_144 bus1=bus_95.1.3 bus2=bus_96.1.3 linecode=LCode_144 length=1.0 units=km
new linecode.LCode_145 nphases=1 rmatrix=[0.211559] xmatrix=[1.365999] units=km
new line.line_145 bus1=bus_97.3 bus2=bus_99.3 linecode=LCode_145 length=1.0 units=km
new linecode.LCode_146 nphases=1 rmatrix=[0.226209] xmatrix=[1.242115] units=km
new line.line_146 bus1=bus_98.3 bus2=bus_99.3 linecode=LCode_146 length=1.0 units=km
new linecode.LCode_147 nphases=1 rmatrix=[0.887628] xmatrix=[1.369937] units=km
new line.line_147 bus1=bus_99.3 bus2=bus_100.3 linecode=LCode_147 length=1.0 units=km
new linecode.LCode_148 nphases=1 rmatrix=[0.170054] xmatrix=[1.472483] units=km
new line.line_148 bus1=bus_91.3 bus2=bus_101.3 linecode=LCode_148 length=1.0 units=km
new linecode.LCode_149 nphases=1 rmatrix=[0.811178] xmatrix=[1.242115] units=km
new line.line_149 bus1=bus_100.3 bus2=bus_101.3 linecode=LCode_149 length=1.0 units=km
new linecode.LCode_150 nphases=1 rmatrix=[0.305849] xmatrix=[1.403851] units=km
new line.line_150 bus1=bus_99.3 bus2=bus_102.3 linecode=LCode_150 length=1.0 units=km
new linecode.LCode_151 nphases=1 rmatrix=[0.437306] xmatrix=[1.633594] units=km
new line.line_151 bus1=bus_99.3 bus2=bus_103.3 linecode=LCode_151 length=1.0 units=km
new linecode.LCode_152 nphases=1 rmatrix=[0.531273] xmatrix=[1.242115] units=km
new line.line_152 bus1=bus_102.3 bus2=bus_103.3 linecode=LCode_152 length=1.0 units=km
new linecode.LCode_153 nphases=1 rmatrix=[0.895267] xmatrix=[1.346565] units=km
new line.line_153 bus1=bus_102.3 bus2=bus_104.3 linecode=LCode_153 length=1.0 units=km
new linecode.LCode_154 nphases=1 rmatrix=[1.180585] xmatrix=[1.405206] units=km
new line.line_154 bus1=bus_99.3 bus2=bus_105.3 linecode=LCode_154 length=1.0 units=km
new linecode.LCode_155 nphases=1 rmatrix=[1.008244] xmatrix=[1.376166] units=km
new line.line_155 bus1=bus_103.3 bus2=bus_104.3 linecode=LCode_155 length=1.0 units=km
new linecode.LCode_156 nphases=1 rmatrix=[1.352282] xmatrix=[1.324471] units=km
new line.line_156 bus1=bus_104.3 bus2=bus_105.3 linecode=LCode_156 length=1.0 units=km
new linecode.LCode_157 nphases=1 rmatrix=[1.535001] xmatrix=[1.242115] units=km
new line.line_157 bus1=bus_104.3 bus2=bus_106.3 linecode=LCode_157 length=1.0 units=km
new linecode.LCode_158 nphases=1 rmatrix=[1.044805] xmatrix=[1.359396] units=km
new line.line_158 bus1=bus_104.3 bus2=bus_107.3 linecode=LCode_158 length=1.0 units=km
new linecode.LCode_159 nphases=1 rmatrix=[0.884081] xmatrix=[1.242115] units=km
new line.line_159 bus1=bus_105.3 bus2=bus_106.3 linecode=LCode_159 length=1.0 units=km
new linecode.LCode_160 nphases=1 rmatrix=[0.757633] xmatrix=[1.242115] units=km
new line.line_160 bus1=bus_107.3 bus2=bus_108.3 linecode=LCode_160 length=1.0 units=km
new linecode.LCode_161 nphases=1 rmatrix=[0.855233] xmatrix=[1.242115] units=km
new line.line_161 bus1=bus_102.3 bus2=bus_109.3 linecode=LCode_161 length=1.0 units=km
new linecode.LCode_162 nphases=1 rmatrix=[0.499561] xmatrix=[1.356600] units=km
new line.line_162 bus1=bus_108.3 bus2=bus_109.3 linecode=LCode_162 length=1.0 units=km
new linecode.LCode_163 nphases=1 rmatrix=[1.092561] xmatrix=[1.489838] units=km
new line.line_163 bus1=bus_109.3 bus2=bus_110.3 linecode=LCode_163 length=1.0 units=km
new linecode.LCode_164 nphases=1 rmatrix=[0.990730] xmatrix=[1.242115] units=km
new line.line_164 bus1=bus_109.3 bus2=bus_111.3 linecode=LCode_164 length=1.0 units=km
new linecode.LCode_166 nphases=2 rmatrix=[0.480757 | 0.059160 0.480757] xmatrix=[1.242115 | 1.024695 1.242115] units=km
new line.line_166 bus1=bus_31.2.3 bus2=bus_112.2.3 linecode=LCode_166 length=1.0 units=km
new linecode.LCode_167 nphases=2 rmatrix=[0.600916 | 0.059160 0.600916] xmatrix=[1.242115 | 1.024695 1.242115] units=km
new line.line_167 bus1=bus_31.2.3 bus2=bus_113.2.3 linecode=LCode_167 length=1.0 units=km
new linecode.LCode_168 nphases=1 rmatrix=[0.678595] xmatrix=[1.284859] units=km
new line.line_168 bus1=bus_26.1 bus2=bus_114.1 linecode=LCode_168 length=1.0 units=km
new linecode.LCode_170 nphases=1 rmatrix=[0.554815] xmatrix=[1.298668] units=km
new line.line_170 bus1=bus_11.1 bus2=bus_116.1 linecode=LCode_170 length=1.0 units=km
new linecode.LCode_171 nphases=1 rmatrix=[0.635771] xmatrix=[1.247154] units=km
new line.line_171 bus1=bus_74.1 bus2=bus_117.1 linecode=LCode_171 length=1.0 units=km
new linecode.LCode_172 nphases=1 rmatrix=[0.307863] xmatrix=[1.292440] units=km
new line.line_172 bus1=bus_75.1 bus2=bus_117.1 linecode=LCode_172 length=1.0 units=km

!---------------- LOADS ----------------

new load.load_0_A bus1=bus_0.1 Phases=1 kv=157.6864406779661 kw=2392.0309481696568 kvar=784.5861509996474 vminpu=0.85
new load.load_1_A bus1=bus_1.1 Phases=1 kv=157.6864406779661 kw=1555.4155113453369 kvar=510.1762877212705 vminpu=0.85
new load.load_2_A bus1=bus_2.1 Phases=1 kv=157.6864406779661 kw=1879.0706117423 kvar=616.3351606514744 vminpu=0.85
new load.load_3_A bus1=bus_3.1 Phases=1 kv=157.6864406779661 kw=1948.812316380456 kvar=639.2104397727895 vminpu=0.85
new load.load_4_A bus1=bus_4.1 Phases=1 kv=157.6864406779661 kw=1811.0339498709889 kvar=594.0191355576844 vminpu=0.85
new load.load_5_A bus1=bus_5.1 Phases=1 kv=157.6864406779661 kw=1885.7689874573732 kvar=618.5322278860184 vminpu=0.85
new load.load_6_A bus1=bus_6.1 Phases=1 kv=157.6864406779661 kw=2067.721314338592 kvar=678.2125911030582 vminpu=0.85
new load.load_7_A bus1=bus_7.1 Phases=1 kv=157.6864406779661 kw=2085.2290686957062 kvar=683.9551345321917 vminpu=0.85
new load.load_8_A bus1=bus_8.1 Phases=1 kv=157.6864406779661 kw=2019.6809160635328 kvar=662.4553404688388 vminpu=0.85
new load.load_9_A bus1=bus_9.1 Phases=1 kv=157.6864406779661 kw=1903.974660941943 kvar=624.5036887889573 vminpu=0.85
new load.load_10_A bus1=bus_10.1 Phases=1 kv=157.6864406779661 kw=2181.248485621117 kvar=715.4495032837265 vminpu=0.85
new load.load_11_A bus1=bus_11.1 Phases=1 kv=157.6864406779661 kw=2756.694038212345 kvar=904.1956445336491 vminpu=0.85
new load.load_12_C bus1=bus_12.3 Phases=1 kv=157.6864406779661 kw=1583.3406338136629 kvar=519.3357278908815 vminpu=0.85
new load.load_13_C bus1=bus_13.3 Phases=1 kv=157.6864406779661 kw=2014.846403918989 kvar=660.8696204854284 vminpu=0.85
new load.load_14_C bus1=bus_14.3 Phases=1 kv=157.6864406779661 kw=1705.320055756119 kvar=559.344978288007 vminpu=0.85
new load.load_15_A bus1=bus_15.1 Phases=1 kv=157.6864406779661 kw=1933.5631525196263 kvar=634.2087140264374 vminpu=0.85
new load.load_16_A bus1=bus_16.1 Phases=1 kv=157.6864406779661 kw=2125.5052021234587 kvar=697.1657062964945 vminpu=0.85
new load.load_17_A bus1=bus_17.1 Phases=1 kv=157.6864406779661 kw=2641.3664663250806 kvar=866.3682009546264 vminpu=0.85
new load.load_18_C bus1=bus_18.3 Phases=1 kv=157.6864406779661 kw=1786.4840073814796 kvar=585.9667544211253 vminpu=0.85
new load.load_19_B bus1=bus_19.2 Phases=1 kv=157.6864406779661 kw=1132.02614731032 kvar=371.304576317785 vminpu=0.85
new load.load_19_C bus1=bus_19.3 Phases=1 kv=157.6864406779661 kw=1035.3679004874202 kvar=339.60067135987384 vminpu=0.85
new load.load_20_B bus1=bus_20.2 Phases=1 kv=157.6864406779661 kw=667.2282669969716 kvar=218.8508715750067 vminpu=0.85
new load.load_20_C bus1=bus_20.3 Phases=1 kv=157.6864406779661 kw=1202.7083379702274 kvar=394.4883348542346 vminpu=0.85
new load.load_21_B bus1=bus_21.2 Phases=1 kv=157.6864406779661 kw=1373.1711425829185 kvar=450.4001347671973 vminpu=0.85
new load.load_21_C bus1=bus_21.3 Phases=1 kv=157.6864406779661 kw=322.5507394060237 kvar=105.79664252517577 vminpu=0.85
new load.load_22_B bus1=bus_22.2 Phases=1 kv=157.6864406779661 kw=1116.657990532307 kvar=366.2638208945967 vminpu=0.85
new load.load_22_C bus1=bus_22.3 Phases=1 kv=157.6864406779661 kw=187.44925738123575 kvar=61.48335642104533 vminpu=0.85
new load.load_23_B bus1=bus_23.2 Phases=1 kv=157.6864406779661 kw=238.13382836549692 kvar=78.10789570388299 vminpu=0.85
new load.load_23_C bus1=bus_23.3 Phases=1 kv=157.6864406779661 kw=1538.06300949738 kvar=504.4846671151407 vminpu=0.85
new load.load_24_A bus1=bus_24.1 Phases=1 kv=157.6864406779661 kw=2630.2867898123627 kvar=862.734067058455 vminpu=0.85
new load.load_25_A bus1=bus_25.1 Phases=1 kv=157.6864406779661 kw=2190.635277325189 kvar=718.5283709626619 vminpu=0.85
new load.load_26_A bus1=bus_26.1 Phases=1 kv=157.6864406779661 kw=2207.085817167393 kvar=723.9241480309049 vminpu=0.85
new load.load_27_A bus1=bus_27.1 Phases=1 kv=157.6864406779661 kw=1790.0871246265908 kvar=587.1485768775218 vminpu=0.85
new load.load_28_B bus1=bus_28.2 Phases=1 kv=157.6864406779661 kw=453.02947095406495 kvar=148.5936664729333 vminpu=0.85
new load.load_28_C bus1=bus_28.3 Phases=1 kv=157.6864406779661 kw=1318.1242095327457 kvar=432.3447407267406 vminpu=0.85
new load.load_29_A bus1=bus_29.1 Phases=1 kv=157.6864406779661 kw=1890.5117536201328 kvar=620.0878551874036 vminpu=0.85
new load.load_30_B bus1=bus_30.2 Phases=1 kv=157.6864406779661 kw=1093.4652880575466 kvar=358.6566144828753 vminpu=0.85
new load.load_30_C bus1=bus_30.3 Phases=1 kv=157.6864406779661 kw=1486.437923490514 kvar=487.55163890488865 vminpu=0.85
new load.load_31_B bus1=bus_31.2 Phases=1 kv=157.6864406779661 kw=1775.839739420255 kvar=582.4754345298437 vminpu=0.85
new load.load_31_C bus1=bus_31.3 Phases=1 kv=157.6864406779661 kw=157.5098043096193 kvar=51.663215813555134 vminpu=0.85
new load.load_32_C bus1=bus_32.3 Phases=1 kv=157.6864406779661 kw=2901.056684379762 kvar=951.546592476562 vminpu=0.85
new load.load_33_C bus1=bus_33.3 Phases=1 kv=157.6864406779661 kw=2139.3364164680443 kvar=701.7023446015186 vminpu=0.85
new load.load_34_C bus1=bus_34.3 Phases=1 kv=157.6864406779661 kw=1908.1783912951717 kvar=625.8825123448163 vminpu=0.85
new load.load_35_C bus1=bus_35.3 Phases=1 kv=157.6864406779661 kw=1835.048112298372 kvar=601.8957808338661 vminpu=0.85
new load.load_36_C bus1=bus_36.3 Phases=1 kv=157.6864406779661 kw=1534.2078497538816 kvar=503.2201747192732 vminpu=0.85
new load.load_37_A bus1=bus_37.1 Phases=1 kv=157.6864406779661 kw=2418.854981617821 kvar=793.3844339706453 vminpu=0.85
new load.load_38_B bus1=bus_38.2 Phases=1 kv=157.6864406779661 kw=1342.633400937658 kvar=440.3837555075519 vminpu=0.85
new load.load_38_C bus1=bus_38.3 Phases=1 kv=157.6864406779661 kw=205.50164611695243 kvar=67.4045399263604 vminpu=0.85
new load.load_39_B bus1=bus_39.2 Phases=1 kv=157.6864406779661 kw=435.7640696942816 kvar=142.93061485972436 vminpu=0.85
new load.load_39_C bus1=bus_39.3 Phases=1 kv=157.6864406779661 kw=1610.569825258824 kvar=528.2669026848943 vminpu=0.85
new load.load_40_B bus1=bus_40.2 Phases=1 kv=157.6864406779661 kw=341.2656028917265 kvar=111.93511774848629 vminpu=0.85
new load.load_40_C bus1=bus_40.3 Phases=1 kv=157.6864406779661 kw=1682.049286071274 kvar=551.7121658313779 vminpu=0.85
new load.load_41_B bus1=bus_41.2 Phases=1 kv=157.6864406779661 kw=1243.598451777607 kvar=407.90029218305506 vminpu=0.85
new load.load_41_C bus1=bus_41.3 Phases=1 kv=157.6864406779661 kw=1373.2950449117127 kvar=450.44077473104176 vminpu=0.85
new load.load_42_B bus1=bus_42.2 Phases=1 kv=157.6864406779661 kw=1481.7695058091583 kvar=486.02039790540397 vminpu=0.85
new load.load_42_C bus1=bus_42.3 Phases=1 kv=157.6864406779661 kw=482.0755629606798 kvar=158.12078465110298 vminpu=0.85
new load.load_43_B bus1=bus_43.2 Phases=1 kv=157.6864406779661 kw=44.76869223815845 kvar=14.684131054115973 vminpu=0.85
new load.load_43_C bus1=bus_43.3 Phases=1 kv=157.6864406779661 kw=1738.8617172247582 kvar=570.3466432497207 vminpu=0.85
new load.load_44_B bus1=bus_44.2 Phases=1 kv=157.6864406779661 kw=264.6716701039012 kvar=86.8123077940796 vminpu=0.85
new load.load_44_C bus1=bus_44.3 Phases=1 kv=157.6864406779661 kw=1834.180173522336 kvar=601.6110969153262 vminpu=0.85
new load.load_45_B bus1=bus_45.2 Phases=1 kv=157.6864406779661 kw=1442.120039839754 kvar=473.0153730674394 vminpu=0.85
new load.load_46_B bus1=bus_46.2 Phases=1 kv=157.6864406779661 kw=2935.3096027096944 kvar=962.7815496887798 vminpu=0.85
new load.load_47_B bus1=bus_47.2 Phases=1 kv=157.6864406779661 kw=187.2368051432848 kvar=61.41367208699742 vminpu=0.85
new load.load_47_C bus1=bus_47.3 Phases=1 kv=157.6864406779661 kw=2258.635051939101 kvar=740.8322970360251 vminpu=0.85
new load.load_48_B bus1=bus_48.2 Phases=1 kv=157.6864406779661 kw=1363.1560586487935 kvar=447.1151872368043 vminpu=0.85
new load.load_48_C bus1=bus_48.3 Phases=1 kv=157.6864406779661 kw=879.1178370174629 kvar=288.3506505417278 vminpu=0.85
new load.load_49_B bus1=bus_49.2 Phases=1 kv=157.6864406779661 kw=1631.4288966126455 kvar=535.1086780889477 vminpu=0.85
new load.load_49_C bus1=bus_49.3 Phases=1 kv=157.6864406779661 kw=774.8862848954194 kvar=254.16270144569756 vminpu=0.85
new load.load_50_B bus1=bus_50.2 Phases=1 kv=157.6864406779661 kw=1038.2263621696245 kvar=340.5382467916369 vminpu=0.85
new load.load_50_C bus1=bus_50.3 Phases=1 kv=157.6864406779661 kw=807.5435969882759 kvar=264.8742998121545 vminpu=0.85
new load.load_51_B bus1=bus_51.2 Phases=1 kv=157.6864406779661 kw=819.0866459992046 kvar=268.6604198877391 vminpu=0.85
new load.load_51_C bus1=bus_51.3 Phases=1 kv=157.6864406779661 kw=1040.0251581273096 kvar=341.1282518657576 vminpu=0.85
new load.load_52_B bus1=bus_52.2 Phases=1 kv=157.6864406779661 kw=1560.3747984461272 kvar=511.80293389032977 vminpu=0.85
new load.load_52_C bus1=bus_52.3 Phases=1 kv=157.6864406779661 kw=84.16985698936692 kvar=27.607713092512352 vminpu=0.85
new load.load_53_B bus1=bus_53.2 Phases=1 kv=157.6864406779661 kw=1479.5336298958512 kvar=485.2870306058392 vminpu=0.85
new load.load_53_C bus1=bus_53.3 Phases=1 kv=157.6864406779661 kw=590.5019896185814 kvar=193.68465259489471 vminpu=0.85
new load.load_54_A bus1=bus_54.1 Phases=1 kv=157.6864406779661 kw=1785.0321332973049 kvar=585.490539721516 vminpu=0.85
new load.load_55_B bus1=bus_55.2 Phases=1 kv=157.6864406779661 kw=405.6837460001572 kvar=133.06426868805158 vminpu=0.85
new load.load_55_C bus1=bus_55.3 Phases=1 kv=157.6864406779661 kw=1506.5772038810392 kvar=494.15732287298084 vminpu=0.85
new load.load_56_B bus1=bus_56.2 Phases=1 kv=157.6864406779661 kw=725.3048283575823 kvar=237.899983701287 vminpu=0.85
new load.load_56_C bus1=bus_56.3 Phases=1 kv=157.6864406779661 kw=1079.6940260179017 kvar=354.1396405338718 vminpu=0.85
new load.load_57_B bus1=bus_57.2 Phases=1 kv=157.6864406779661 kw=903.4727522500748 kvar=296.33906273802455 vminpu=0.85
new load.load_57_C bus1=bus_57.3 Phases=1 kv=157.6864406779661 kw=547.8780120322189 kvar=179.7039879465678 vminpu=0.85
new load.load_58_A bus1=bus_58.1 Phases=1 kv=157.6864406779661 kw=2020.47170058062 kvar=662.7147177904434 vminpu=0.85
new load.load_59_A bus1=bus_59.1 Phases=1 kv=157.6864406779661 kw=2197.3858375007712 kvar=720.742554700253 vminpu=0.85
new load.load_60_A bus1=bus_60.1 Phases=1 kv=157.6864406779661 kw=2355.288513848166 kvar=772.5346325421986 vminpu=0.85
new load.load_61_B bus1=bus_61.2 Phases=1 kv=157.6864406779661 kw=844.5155818649824 kvar=277.00111085171426 vminpu=0.85
new load.load_61_C bus1=bus_61.3 Phases=1 kv=157.6864406779661 kw=1126.8678904714357 kvar=369.6126680746309 vminpu=0.85
new load.load_62_C bus1=bus_62.3 Phases=1 kv=157.6864406779661 kw=2039.3475190510096 kvar=668.9059862487312 vminpu=0.85
new load.load_63_C bus1=bus_63.3 Phases=1 kv=157.6864406779661 kw=1833.460965090513 kvar=601.3751965496882 vminpu=0.85
new load.load_64_B bus1=bus_64.2 Phases=1 kv=157.6864406779661 kw=1026.9096882924734 kvar=336.8263777599313 vminpu=0.85
new load.load_64_C bus1=bus_64.3 Phases=1 kv=157.6864406779661 kw=1056.8088206112516 kvar=346.63329316049055 vminpu=0.85
new load.load_65_B bus1=bus_65.2 Phases=1 kv=157.6864406779661 kw=2294.6921762733723 kvar=752.6590338176661 vminpu=0.85
new load.load_65_C bus1=bus_65.3 Phases=1 kv=157.6864406779661 kw=332.2729240011755 kvar=108.98551907238557 vminpu=0.85
new load.load_66_B bus1=bus_66.2 Phases=1 kv=157.6864406779661 kw=880.5030143113211 kvar=288.8049886941133 vminpu=0.85
new load.load_66_C bus1=bus_66.3 Phases=1 kv=157.6864406779661 kw=1425.8034996481588 kvar=467.6635478845961 vminpu=0.85
new load.load_67_B bus1=bus_67.2 Phases=1 kv=157.6864406779661 kw=356.60550654745384 kvar=116.96660614756486 vminpu=0.85
new load.load_67_C bus1=bus_67.3 Phases=1 kv=157.6864406779661 kw=1327.306744099766 kvar=435.3566120647233 vminpu=0.85
new load.load_69_B bus1=bus_69.2 Phases=1 kv=157.6864406779661 kw=662.1056414943171 kvar=217.170650410136 vminpu=0.85
new load.load_69_C bus1=bus_69.3 Phases=1 kv=157.6864406779661 kw=1626.9072475988785 kvar=533.6255772124322 vminpu=0.85
new load.load_70_B bus1=bus_70.2 Phases=1 kv=157.6864406779661 kw=617.577458638539 kvar=202.5654064334408 vminpu=0.85
new load.load_70_C bus1=bus_70.3 Phases=1 kv=157.6864406779661 kw=1599.2571473931248 kvar=524.5563443449449 vminpu=0.85
new load.load_71_B bus1=bus_71.2 Phases=1 kv=157.6864406779661 kw=463.3364442323477 kvar=151.97435370821003 vminpu=0.85
new load.load_71_C bus1=bus_71.3 Phases=1 kv=157.6864406779661 kw=1914.643809236587 kvar=628.0031694296006 vminpu=0.85
new load.load_72_A bus1=bus_72.1 Phases=1 kv=157.6864406779661 kw=2325.497971512832 kvar=762.7633346562089 vminpu=0.85
new load.load_73_B bus1=bus_73.2 Phases=1 kv=157.6864406779661 kw=1303.3739307163594 kvar=427.5066492749659 vminpu=0.85
new load.load_73_C bus1=bus_73.3 Phases=1 kv=157.6864406779661 kw=359.86988647086326 kvar=118.03732276244315 vminpu=0.85
new load.load_74_A bus1=bus_74.1 Phases=1 kv=157.6864406779661 kw=1917.777280736621 kvar=629.0309480816117 vminpu=0.85
new load.load_75_A bus1=bus_75.1 Phases=1 kv=157.6864406779661 kw=935.0196047769664 kvar=306.686430366845 vminpu=0.85
new load.load_75_C bus1=bus_75.3 Phases=1 kv=157.6864406779661 kw=788.8124667921816 kvar=258.7304891078356 vminpu=0.85
new load.load_76_A bus1=bus_76.1 Phases=1 kv=157.6864406779661 kw=945.1302211245252 kvar=310.00271252884426 vminpu=0.85
new load.load_76_C bus1=bus_76.3 Phases=1 kv=157.6864406779661 kw=607.8004973479822 kvar=199.35856313013815 vminpu=0.85
new load.load_77_A bus1=bus_77.1 Phases=1 kv=157.6864406779661 kw=1575.4472751100084 kvar=516.7467062360828 vminpu=0.85
new load.load_77_C bus1=bus_77.3 Phases=1 kv=157.6864406779661 kw=355.67762108789464 kvar=116.66225971682944 vminpu=0.85
new load.load_78_A bus1=bus_78.1 Phases=1 kv=157.6864406779661 kw=352.70643644496784 kvar=115.68771115394945 vminpu=0.85
new load.load_78_C bus1=bus_78.3 Phases=1 kv=157.6864406779661 kw=1791.984376090277 kvar=587.7708753576109 vminpu=0.85
new load.load_79_A bus1=bus_79.1 Phases=1 kv=157.6864406779661 kw=252.31976144603863 kvar=82.76088175430067 vminpu=0.85
new load.load_79_C bus1=bus_79.3 Phases=1 kv=157.6864406779661 kw=1588.0967672386523 kvar=520.895739654278 vminpu=0.85
new load.load_80_B bus1=bus_80.2 Phases=1 kv=157.6864406779661 kw=970.02921866784 kvar=318.1695837230516 vminpu=0.85
new load.load_80_C bus1=bus_80.3 Phases=1 kv=157.6864406779661 kw=1374.916532379313 kvar=450.97262262041465 vminpu=0.85
new load.load_81_C bus1=bus_81.3 Phases=1 kv=157.6864406779661 kw=1638.3647603645468 kvar=537.3836413995714 vminpu=0.85
new load.load_82_C bus1=bus_82.3 Phases=1 kv=157.6864406779661 kw=1640.3196815016163 kvar=538.0248555325302 vminpu=0.85
new load.load_83_C bus1=bus_83.3 Phases=1 kv=157.6864406779661 kw=1303.6878037381275 kvar=427.6095996261058 vminpu=0.85
new load.load_84_C bus1=bus_84.3 Phases=1 kv=157.6864406779661 kw=1713.898600086395 kvar=562.1587408283376 vminpu=0.85
new load.load_85_C bus1=bus_85.3 Phases=1 kv=157.6864406779661 kw=1942.9457190192431 kvar=637.2861958383118 vminpu=0.85
new load.load_86_C bus1=bus_86.3 Phases=1 kv=157.6864406779661 kw=1997.965537964404 kvar=655.3326964523245 vminpu=0.85
new load.load_87_C bus1=bus_87.3 Phases=1 kv=157.6864406779661 kw=1945.7510793695933 kvar=638.2063540332266 vminpu=0.85
new load.load_88_C bus1=bus_88.3 Phases=1 kv=157.6864406779661 kw=1090.0649755492936 kvar=357.54131198016836 vminpu=0.85
new load.load_89_C bus1=bus_89.3 Phases=1 kv=157.6864406779661 kw=1473.4166216759477 kvar=483.28065190971085 vminpu=0.85
new load.load_90_C bus1=bus_90.3 Phases=1 kv=157.6864406779661 kw=1976.0679572480524 kvar=648.1502899773612 vminpu=0.85
new load.load_91_C bus1=bus_91.3 Phases=1 kv=157.6864406779661 kw=2422.5512214965493 kvar=794.5968006508682 vminpu=0.85
new load.load_92_C bus1=bus_92.3 Phases=1 kv=157.6864406779661 kw=1322.1834244053118 kvar=433.67616320494227 vminpu=0.85
new load.load_93_C bus1=bus_93.3 Phases=1 kv=157.6864406779661 kw=2166.606994330804 kvar=710.6470941405037 vminpu=0.85
new load.load_94_A bus1=bus_94.1 Phases=1 kv=157.6864406779661 kw=1755.4741610859048 kvar=575.7955248361768 vminpu=0.85
new load.load_94_C bus1=bus_94.3 Phases=1 kv=157.6864406779661 kw=810.8447326426115 kvar=265.9570723067766 vminpu=0.85
new load.load_95_A bus1=bus_95.1 Phases=1 kv=157.6864406779661 kw=563.5681641512967 kvar=184.85035784162534 vminpu=0.85
new load.load_95_C bus1=bus_95.3 Phases=1 kv=157.6864406779661 kw=1448.2858245043765 kvar=475.0377504374355 vminpu=0.85
new load.load_96_A bus1=bus_96.1 Phases=1 kv=157.6864406779661 kw=458.7335158883863 kvar=150.4645932113907 vminpu=0.85
new load.load_96_C bus1=bus_96.3 Phases=1 kv=157.6864406779661 kw=1402.3577281634098 kvar=459.97333483759843 vminpu=0.85
new load.load_97_A bus1=bus_97.1 Phases=1 kv=157.6864406779661 kw=2284.411053539968 kvar=749.2868255611096 vminpu=0.85
new load.load_97_C bus1=bus_97.3 Phases=1 kv=157.6864406779661 kw=39.71655097434775 kvar=13.027028719586061 vminpu=0.85
new load.load_98_A bus1=bus_98.1 Phases=1 kv=157.6864406779661 kw=1885.2785550176363 kvar=618.3713660457847 vminpu=0.85
new load.load_98_C bus1=bus_98.3 Phases=1 kv=157.6864406779661 kw=147.4822470832887 kvar=48.3741770433187 vminpu=0.85
new load.load_99_C bus1=bus_99.3 Phases=1 kv=157.6864406779661 kw=2017.7407060484288 kvar=661.8189515838847 vminpu=0.85
new load.load_100_C bus1=bus_100.3 Phases=1 kv=157.6864406779661 kw=1563.8287254480597 kvar=512.9358219469636 vminpu=0.85
new load.load_101_C bus1=bus_101.3 Phases=1 kv=157.6864406779661 kw=2199.390599377777 kvar=721.400116595911 vminpu=0.85
new load.load_102_C bus1=bus_102.3 Phases=1 kv=157.6864406779661 kw=1828.4262492329597 kvar=599.7238097484108 vminpu=0.85
new load.load_103_C bus1=bus_103.3 Phases=1 kv=157.6864406779661 kw=1885.608867908432 kvar=618.4797086739658 vminpu=0.85
new load.load_104_C bus1=bus_104.3 Phases=1 kv=157.6864406779661 kw=1918.117809565637 kvar=629.1426415375289 vminpu=0.85
new load.load_105_C bus1=bus_105.3 Phases=1 kv=157.6864406779661 kw=1727.9599020564424 kvar=566.7708478745132 vminpu=0.85
new load.load_106_C bus1=bus_106.3 Phases=1 kv=157.6864406779661 kw=2150.9458912856308 kvar=705.510252341687 vminpu=0.85
new load.load_107_C bus1=bus_107.3 Phases=1 kv=157.6864406779661 kw=1464.3807557431269 kvar=480.31688788374566 vminpu=0.85
new load.load_108_C bus1=bus_108.3 Phases=1 kv=157.6864406779661 kw=1799.7462482080318 kvar=590.3167694122345 vminpu=0.85
new load.load_109_C bus1=bus_109.3 Phases=1 kv=157.6864406779661 kw=2050.6300422784548 kvar=672.6066538673332 vminpu=0.85
new load.load_110_C bus1=bus_110.3 Phases=1 kv=157.6864406779661 kw=1423.0002008096878 kvar=466.7440658655776 vminpu=0.85
new load.load_111_C bus1=bus_111.3 Phases=1 kv=157.6864406779661 kw=2376.126629592246 kvar=779.3695345062567 vminpu=0.85
new load.load_112_B bus1=bus_112.2 Phases=1 kv=157.6864406779661 kw=325.7447323581752 kvar=106.84427221348147 vminpu=0.85
new load.load_112_C bus1=bus_112.3 Phases=1 kv=157.6864406779661 kw=1826.742405307722 kvar=599.1715089409329 vminpu=0.85
new load.load_113_B bus1=bus_113.2 Phases=1 kv=157.6864406779661 kw=316.97708018714815 kvar=103.9684823013846 vminpu=0.85
new load.load_113_C bus1=bus_113.3 Phases=1 kv=157.6864406779661 kw=1604.4530708531674 kvar=526.2606072398389 vminpu=0.85
new load.load_114_A bus1=bus_114.1 Phases=1 kv=157.6864406779661 kw=1895.7764847102544 kvar=621.8146869849635 vminpu=0.85
new load.load_115_C bus1=bus_115.3 Phases=1 kv=157.6864406779661 kw=1880.5854888462009 kvar=616.8320403415539 vminpu=0.85
new load.load_116_A bus1=bus_116.1 Phases=1 kv=157.6864406779661 kw=1842.007235484317 kvar=604.178373238856 vminpu=0.85
new load.load_117_A bus1=bus_117.1 Phases=1 kv=157.6864406779661 kw=1514.8972753215712 kvar=496.8863063054754 vminpu=0.85

!---------------- SOLUTION ----------------

set controlmode=off
Set Voltagebases=[157.6864406779661]
calcv
Solve